Version 4
SHEET 1 880 756
WIRE 272 -80 272 -128
WIRE 272 -80 208 -80
WIRE 368 -80 272 -80
WIRE 448 -80 368 -80
WIRE 208 16 208 -80
WIRE 80 32 64 32
WIRE 176 32 80 32
WIRE 368 32 368 -80
WIRE 336 48 240 48
WIRE 176 64 144 64
WIRE 576 64 400 64
WIRE 336 80 288 80
WIRE 208 96 208 80
WIRE 208 96 176 96
WIRE 368 96 208 96
WIRE 96 128 64 128
WIRE 144 128 144 64
WIRE 144 128 96 128
WIRE 112 176 64 176
WIRE 288 176 288 80
WIRE 288 176 112 176
WIRE 336 240 256 240
WIRE 448 240 448 -80
WIRE 448 240 336 240
WIRE 480 240 448 240
WIRE 560 240 480 240
WIRE 640 240 560 240
WIRE 256 272 256 240
WIRE 96 288 96 128
WIRE 224 288 96 288
WIRE 480 288 480 240
WIRE 448 304 288 304
WIRE 560 304 560 240
WIRE 640 304 640 240
WIRE 112 320 112 176
WIRE 224 320 112 320
WIRE 544 320 512 320
WIRE 608 320 592 320
WIRE 448 336 432 336
WIRE 768 336 672 336
WIRE 176 352 176 96
WIRE 256 352 256 336
WIRE 256 352 176 352
WIRE 480 352 256 352
WIRE 608 352 576 352
WIRE 336 368 336 240
WIRE 336 368 256 368
WIRE 480 368 480 352
WIRE 560 368 560 336
WIRE 560 368 480 368
WIRE 640 368 560 368
WIRE 256 384 256 368
WIRE 96 400 96 288
WIRE 224 400 96 400
WIRE 432 416 432 336
WIRE 432 416 288 416
WIRE 80 432 80 32
WIRE 224 432 80 432
WIRE 176 464 176 352
WIRE 256 464 256 448
WIRE 256 464 176 464
WIRE 336 480 336 368
WIRE 336 480 256 480
WIRE 256 496 256 480
WIRE 112 512 112 320
WIRE 224 512 112 512
WIRE 576 528 576 352
WIRE 576 528 288 528
WIRE 80 544 80 432
WIRE 224 544 80 544
WIRE 176 592 176 464
WIRE 256 592 256 560
WIRE 256 592 176 592
WIRE 288 592 256 592
WIRE 288 672 288 592
FLAG 64 128 a
FLAG 64 176 b
FLAG 64 32 cin
FLAG 272 -128 Vdd
FLAG 288 672 Vss
FLAG 576 64 s
FLAG 768 336 cout
SYMBOL xor 208 48 R0
SYMATTR InstName X1
SYMATTR SpiceLine ll=180n wn={nnw} wp={nnw*mp}
SYMBOL xor 368 64 R0
SYMATTR InstName X2
SYMATTR SpiceLine ll=180n wn={nnw} wp={nnw*mp}
SYMBOL nand 256 304 R0
SYMATTR InstName X3
SYMATTR SpiceLine ll=180n wn={nnw} wp={nnw*mp}
SYMBOL nand 256 416 R0
SYMATTR InstName X4
SYMATTR SpiceLine ll=180n wn={nnw} wp={nnw*mp}
SYMBOL nand 256 528 R0
SYMATTR InstName X5
SYMATTR SpiceLine ll=180n wn={nnw} wp={nnw*mp}
SYMBOL nand 480 320 R0
SYMATTR InstName X6
SYMATTR SpiceLine ll=180n wn={nnw} wp={nnw*mp}
SYMBOL nand 640 336 R0
SYMATTR InstName X7
SYMATTR SpiceLine ll=180n wn={nnw} wp={nnw*mp}
SYMBOL inv 560 320 R0
SYMATTR InstName X8
SYMATTR SpiceLine ll=180n wn={nnw} wp={nnw*mp}
TEXT -576 -176 Left 2 !.param vv=1.8 nnw=8*180n mp=1\n.lib BU_180nm.lib\n.tran 0 10000p 0 10p
