Version 4
SHEET 1 880 1032
WIRE 0 144 0 112
WIRE 0 144 -48 144
WIRE 128 144 0 144
WIRE 0 160 0 144
WIRE -32 176 -112 176
WIRE 128 176 128 144
WIRE 112 192 32 192
WIRE 240 192 160 192
WIRE -32 208 -112 208
WIRE 0 224 -64 224
WIRE 128 224 128 208
WIRE 128 224 0 224
WIRE -48 320 -48 144
WIRE 0 320 -48 320
WIRE 128 320 0 320
WIRE -32 336 -112 336
WIRE 128 336 128 320
WIRE 112 352 32 352
WIRE 240 352 160 352
WIRE -32 368 -112 368
WIRE -64 384 -64 224
WIRE 0 384 -64 384
WIRE 128 384 128 368
WIRE 128 384 0 384
WIRE -48 464 -48 320
WIRE 0 464 -48 464
WIRE 128 464 0 464
WIRE 0 480 0 464
WIRE -32 496 -112 496
WIRE 128 496 128 464
WIRE 112 512 32 512
WIRE 272 512 160 512
WIRE -32 528 -112 528
WIRE -64 560 -64 384
WIRE 0 560 0 544
WIRE 0 560 -64 560
WIRE 128 560 128 528
WIRE 128 560 0 560
WIRE 0 624 0 560
FLAG 0 112 vdd
FLAG 240 192 o1
FLAG 240 352 o2
FLAG 272 512 o3
FLAG -112 176 a1
FLAG -112 336 a2
FLAG -112 496 a3
FLAG -112 208 b1
FLAG -112 368 b2
FLAG -112 528 b3
FLAG 0 624 vss
SYMBOL nand 0 192 R0
SYMATTR InstName X1
SYMATTR SpiceLine ll=180n wn={2*nnw} wp={nnw*mp/2}
SYMBOL nand 0 352 R0
SYMATTR InstName X2
SYMATTR SpiceLine ll=180n wn={2*nnw} wp={nnw*mp/2}
SYMBOL nand 0 512 R0
SYMATTR InstName X3
SYMATTR SpiceLine ll=180n wn={2*nnw} wp={nnw*mp/2}
SYMBOL inv 128 192 R0
SYMATTR InstName X4
SYMATTR SpiceLine ll=180n wn={nnw} wp={nnw*mp}
SYMBOL inv 128 352 R0
SYMATTR InstName X5
SYMATTR SpiceLine ll=180n wn={nnw} wp={nnw*mp}
SYMBOL inv 128 512 R0
SYMATTR InstName X6
SYMATTR SpiceLine ll=180n wn={nnw} wp={nnw*mp}
TEXT -688 16 Left 2 !.param vv=1.8 nnw=180n mp=2.21\n.lib BU_180nm.lib\n.tran 0 10000p 0 10p
