Version 4
SHEET 1 1628 1032
WIRE 1248 112 1248 64
WIRE 1312 112 1248 112
WIRE 1248 176 1248 112
WIRE 1200 192 1072 192
WIRE 1200 224 1072 224
WIRE 1584 224 1296 224
WIRE 1200 256 960 256
WIRE 1248 304 1248 272
WIRE 1344 304 1248 304
WIRE 1312 352 1312 112
WIRE 1312 352 1248 352
WIRE 1248 368 1248 352
WIRE 1200 384 1072 384
WIRE 1200 416 1072 416
WIRE 1584 416 1296 416
WIRE 960 448 960 256
WIRE 960 448 928 448
WIRE 1200 448 960 448
WIRE 1248 528 1248 464
WIRE 1344 528 1344 304
WIRE 1344 528 1248 528
WIRE 1312 624 1312 352
WIRE 1312 624 1248 624
WIRE 1248 656 1248 624
WIRE 1200 672 1072 672
WIRE 1200 704 1072 704
WIRE 1584 704 1296 704
WIRE 960 736 960 448
WIRE 1200 736 960 736
WIRE 1248 816 1248 752
WIRE 1344 816 1344 528
WIRE 1344 816 1248 816
WIRE 1248 896 1248 816
FLAG 928 448 sel
FLAG 1248 64 vdd
FLAG 1584 224 o1
FLAG 1584 416 o2
FLAG 1584 704 o3
FLAG 1072 192 a1
FLAG 1072 384 a2
FLAG 1072 672 a3
FLAG 1072 224 b1
FLAG 1072 416 b2
FLAG 1072 704 b3
FLAG 1248 896 vss
SYMBOL mux2_1 1200 272 R0
SYMATTR InstName X1
SYMATTR SpiceLine ll=180n wn={nnw} wp={nnw*mp}
SYMBOL mux2_1 1200 464 R0
SYMATTR InstName X2
SYMATTR SpiceLine ll=180n wn={nnw} wp={nnw*mp}
SYMBOL mux2_1 1200 752 R0
SYMATTR InstName X3
SYMATTR SpiceLine ll=180n wn={nnw} wp={nnw*mp}
TEXT 400 24 Left 2 !.param vv=1.8 nnw=8*180n mp=2.21\n.lib BU_180nm.lib\n.tran 0 10000p 0 10p
