Version 4
SHEET 1 1628 1032
WIRE 1328 64 1328 48
WIRE 1200 208 1072 208
WIRE 1584 224 1296 224
WIRE 1200 240 1184 240
WIRE 1184 288 1184 240
WIRE 1184 288 1072 288
WIRE 1248 336 1248 272
WIRE 1248 336 960 336
WIRE 1184 368 1072 368
WIRE 1184 400 1184 368
WIRE 1200 400 1184 400
WIRE 1456 416 1296 416
WIRE 1200 432 1184 432
WIRE 960 448 960 336
WIRE 960 448 928 448
WIRE 1456 480 1456 416
WIRE 1584 480 1456 480
WIRE 1184 496 1184 432
WIRE 1184 496 1072 496
WIRE 960 544 960 448
WIRE 1248 544 1248 464
WIRE 1248 544 960 544
WIRE 1152 640 1072 640
WIRE 1152 688 1152 640
WIRE 1200 688 1152 688
WIRE 1472 704 1296 704
WIRE 1200 720 1152 720
WIRE 1472 752 1472 704
WIRE 1584 752 1472 752
WIRE 1152 768 1152 720
WIRE 1152 768 1072 768
WIRE 960 816 960 544
WIRE 1248 816 1248 752
WIRE 1248 816 960 816
WIRE 1328 912 1328 880
FLAG 928 448 sel
FLAG 1328 48 vdd
FLAG 1584 224 o1
FLAG 1584 480 o2
FLAG 1584 752 o3
FLAG 1072 208 a1
FLAG 1072 368 a2
FLAG 1072 640 a3
FLAG 1072 288 b1
FLAG 1072 496 b2
FLAG 1072 768 b3
FLAG 1328 912 vss
SYMBOL mux2_1 1200 272 R0
SYMATTR InstName X1
SYMATTR SpiceLine ll=180n wn={nnw} wp={nnw*mp}
SYMBOL mux2_1 1200 464 R0
SYMATTR InstName X2
SYMATTR SpiceLine ll=180n wn={nnw} wp={nnw*mp}
SYMBOL mux2_1 1200 752 R0
SYMATTR InstName X3
SYMATTR SpiceLine ll=180n wn={nnw} wp={nnw*mp}
TEXT 400 24 Left 2 !.param vv=1.8 nnw=8*180n mp=1\n.lib BU_180nm.lib\n.tran 0 10000p 0 10p
