Version 4
SHEET 1 1192 916
WIRE 448 -32 -112 -32
WIRE 144 0 -304 0
WIRE 240 0 144 0
WIRE 320 0 320 -48
WIRE 320 0 240 0
WIRE 512 0 320 0
WIRE 624 0 512 0
WIRE 144 64 144 0
WIRE 512 64 512 0
WIRE -304 112 -304 0
WIRE -304 112 -400 112
WIRE 240 112 240 0
WIRE 240 112 144 112
WIRE 624 112 624 0
WIRE 624 112 512 112
WIRE -416 128 -448 128
WIRE 48 128 -368 128
WIRE 64 128 48 128
WIRE 64 144 64 128
WIRE 96 144 64 144
WIRE 448 144 448 -32
WIRE 464 144 448 144
WIRE -400 176 -400 144
WIRE -272 176 -400 176
WIRE -448 208 -448 128
WIRE -448 208 -624 208
WIRE 144 224 144 160
WIRE 512 224 512 160
WIRE 240 272 240 112
WIRE 240 272 144 272
WIRE 624 272 624 112
WIRE 624 272 512 272
WIRE 96 304 -48 304
WIRE 464 304 304 304
WIRE -304 320 -304 112
WIRE -304 320 -400 320
WIRE -416 336 -448 336
WIRE -112 336 -112 -32
WIRE -112 336 -368 336
WIRE 144 336 144 320
WIRE 336 336 144 336
WIRE 512 336 512 320
WIRE 512 336 336 336
WIRE 304 352 304 304
WIRE 304 352 0 352
WIRE -400 368 -400 352
WIRE -272 368 -272 176
WIRE -272 368 -400 368
WIRE 336 368 336 336
WIRE 848 368 336 368
WIRE -448 384 -448 336
WIRE -448 384 -624 384
WIRE 336 448 336 368
WIRE 336 448 144 448
WIRE 512 448 336 448
WIRE 272 496 144 496
WIRE 608 496 512 496
WIRE -304 512 -304 320
WIRE -304 512 -400 512
WIRE -416 528 -448 528
WIRE 0 528 0 352
WIRE 0 528 -368 528
WIRE 48 528 48 128
WIRE 96 528 48 528
WIRE 464 528 304 528
WIRE 336 544 144 544
WIRE 512 544 336 544
WIRE -400 560 -400 544
WIRE -272 560 -272 368
WIRE -272 560 -400 560
WIRE 272 560 272 496
WIRE 608 560 608 496
WIRE 608 560 272 560
WIRE -448 576 -448 528
WIRE -448 576 -624 576
WIRE -48 576 -48 304
WIRE -48 576 -448 576
WIRE 304 576 304 528
WIRE 304 576 -48 576
WIRE 608 576 608 560
WIRE 656 576 608 576
WIRE 608 592 608 576
WIRE 608 592 272 592
WIRE 336 608 336 544
WIRE 336 608 144 608
WIRE 512 608 336 608
WIRE 272 656 272 592
WIRE 272 656 144 656
WIRE 608 656 608 592
WIRE 608 656 512 656
WIRE -112 688 -112 336
WIRE 96 688 -112 688
WIRE 464 688 336 688
WIRE 352 704 144 704
WIRE 512 704 352 704
WIRE 0 720 0 528
WIRE 336 720 336 688
WIRE 336 720 0 720
WIRE -272 800 -272 560
WIRE 352 800 352 704
WIRE 352 800 -272 800
WIRE 656 800 656 576
WIRE 656 800 352 800
WIRE 352 832 352 800
FLAG -624 208 a
FLAG -624 384 b
FLAG 352 832 vss
FLAG 320 -48 vdd
FLAG 848 368 o
FLAG -624 576 s
SYMBOL pmos018 464 224 R0
SYMATTR InstName M3
SYMATTR Value2 l={ll} w={wp} ad={450n*{wp}} as={450n*{wp}} pd={900n+{wp}} ps={1080n+{wp}}
SYMBOL pmos018 464 64 R0
SYMATTR InstName M4
SYMATTR Value2 l={ll} w={wp} ad={450n*{wp}} as={450n*{wp}} pd={900n+{wp}} ps={1080n+{wp}}
SYMBOL pmos018 96 64 R0
SYMATTR InstName M5
SYMATTR Value2 l={ll} w={wp} ad={450n*{wp}} as={450n*{wp}} pd={900n+{wp}} ps={1080n+{wp}}
SYMBOL nmos018 96 608 R0
SYMATTR InstName M6
SYMATTR Value2 l={ll} w={wn} ad={450n*{wn}} as={450n*{wn}} pd={900n+{wn}} ps={1080n+{wn}}
SYMBOL nmos018 464 448 R0
SYMATTR InstName M7
SYMATTR Value2 l={ll} w={wn} ad={450n*{wn}} as={450n*{wn}} pd={900n+{wn}} ps={1080n+{wn}}
SYMBOL nmos018 464 608 R0
SYMATTR InstName M8
SYMATTR Value2 l={ll} w={wn} ad={450n*{wn}} as={450n*{wn}} pd={900n+{wn}} ps={1080n+{wn}}
SYMBOL inv -400 128 R0
SYMATTR InstName X1
SYMATTR SpiceLine ll=180n wn={nnw} wp={nnw*mp}
SYMBOL inv -400 336 R0
SYMATTR InstName X2
SYMATTR SpiceLine ll=180n wn={nnw} wp={nnw*mp}
SYMBOL nmos018 96 448 R0
SYMATTR InstName M1
SYMATTR Value2 l={ll} w={wn} ad={450n*{wn}} as={450n*{wn}} pd={900n+{wn}} ps={1080n+{wn}}
SYMBOL pmos018 96 224 R0
SYMATTR InstName M2
SYMATTR Value2 l={ll} w={wp} ad={450n*{wp}} as={450n*{wp}} pd={900n+{wp}} ps={1080n+{wp}}
SYMBOL inv -400 528 R0
SYMATTR InstName X3
SYMATTR SpiceLine ll=180n wn={nnw} wp={nnw*mp}
TEXT -656 72 Left 2 !.lib BU_180nm.lib
TEXT 808 56 Left 2 ;Parametres requis: \nll=180n\nwn=180n  \nwp=360n
